<configuration>
    <input>
        <net-file value="network.net.xml"/>
        <route-files value="routes.rou.xml"/>
	<additional-files value="reroute.add.xml"/>
    </input>
    <time>
        <begin value="0"/>
        <end value="10000"/>
	<step-length value="0.4"/>
    </time>
</configuration>