<?xml version="1.0" encoding="UTF-8"?>

<routes xmlns:xsi="http://www.w3.org/2001/XMLSchema-instance" xsi:noNamespaceSchemaLocation="http://sumo.dlr.de/xsd/routes_file.xsd">
    <vType id="human" accel="0.8" decel="4.5" sigma="0.5" length="5" maxSpeed="70" minGap="0" laneChangeModel="SL2015" guiShape='passenger/wagon'/>
    <vType id="rl" accel="0.8" decel="4.5" sigma="0.5" length="5" maxSpeed="50" carFollowModel="IDM" laneChangeModel="SL2015" guiShape='passenger/van' color="1,0,0"/>
    <route id="route_0" edges="gneE15 gneE8 gneE9 gneE10 gneE11 gneE12 gneE13 gneE14 gneE15"/>
</routes>